instances/data_GOC/Phase_0_RTS96/scenario_69/powersystem.raw
 0,  100.000000
rts96_spring_wday.raw / File written by to_psse.gms
5 / 19 / 2015
101, ' 101 ',138,2,1,1,1,1.00,0.00,1.1,0.9,1.1,0.9
102, ' 102 ',138,2,1,1,1,1.00,0.00,1.1,0.9,1.1,0.9
103, ' 103 ',138,1,1,1,1,1.00,0.00,1.1,0.9,1.1,0.9
104, ' 104 ',138,1,1,1,1,1.00,0.00,1.1,0.9,1.1,0.9
105, ' 105 ',138,1,1,1,1,1.00,0.00,1.1,0.9,1.1,0.9
106, ' 106 ',138,1,1,1,1,1.00,0.00,1.1,0.9,1.1,0.9
107, ' 107 ',138,2,1,1,1,1.00,0.00,1.1,0.9,1.1,0.9
108, ' 108 ',138,1,1,1,1,1.00,0.00,1.1,0.9,1.1,0.9
109, ' 109 ',138,1,1,1,1,1.00,0.00,1.1,0.9,1.1,0.9
110, ' 110 ',138,1,1,1,1,1.00,0.00,1.1,0.9,1.1,0.9
111, ' 111 ',230,1,1,1,1,1.00,0.00,1.1,0.9,1.1,0.9
112, ' 112 ',230,1,1,1,1,1.00,0.00,1.1,0.9,1.1,0.9
113, ' 113 ',230,3,1,1,1,1.00,0.00,1.1,0.9,1.1,0.9
114, ' 114 ',230,2,1,1,1,1.00,0.00,1.1,0.9,1.1,0.9
115, ' 115 ',230,2,1,1,1,1.00,0.00,1.1,0.9,1.1,0.9
116, ' 116 ',230,2,1,1,1,1.00,0.00,1.1,0.9,1.1,0.9
117, ' 117 ',230,1,1,1,1,1.00,0.00,1.1,0.9,1.1,0.9
118, ' 118 ',230,2,1,1,1,1.00,0.00,1.1,0.9,1.1,0.9
119, ' 119 ',230,1,1,1,1,1.00,0.00,1.1,0.9,1.1,0.9
120, ' 120 ',230,1,1,1,1,1.00,0.00,1.1,0.9,1.1,0.9
121, ' 121 ',230,2,1,1,1,1.00,0.00,1.1,0.9,1.1,0.9
122, ' 122 ',230,2,1,1,1,1.00,0.00,1.1,0.9,1.1,0.9
123, ' 123 ',230,2,1,1,1,1.00,0.00,1.1,0.9,1.1,0.9
124, ' 124 ',230,1,1,1,1,1.00,0.00,1.1,0.9,1.1,0.9
201, ' 201 ',138,2,1,1,1,1.00,0.00,1.1,0.9,1.1,0.9
202, ' 202 ',138,2,1,1,1,1.00,0.00,1.1,0.9,1.1,0.9
203, ' 203 ',138,1,1,1,1,1.00,0.00,1.1,0.9,1.1,0.9
204, ' 204 ',138,1,1,1,1,1.00,0.00,1.1,0.9,1.1,0.9
205, ' 205 ',138,1,1,1,1,1.00,0.00,1.1,0.9,1.1,0.9
206, ' 206 ',138,1,1,1,1,1.00,0.00,1.1,0.9,1.1,0.9
207, ' 207 ',138,2,1,1,1,1.00,0.00,1.1,0.9,1.1,0.9
208, ' 208 ',138,1,1,1,1,1.00,0.00,1.1,0.9,1.1,0.9
209, ' 209 ',138,1,1,1,1,1.00,0.00,1.1,0.9,1.1,0.9
210, ' 210 ',138,1,1,1,1,1.00,0.00,1.1,0.9,1.1,0.9
211, ' 211 ',230,1,1,1,1,1.00,0.00,1.1,0.9,1.1,0.9
212, ' 212 ',230,1,1,1,1,1.00,0.00,1.1,0.9,1.1,0.9
213, ' 213 ',230,2,1,1,1,1.00,0.00,1.1,0.9,1.1,0.9
214, ' 214 ',230,2,1,1,1,1.00,0.00,1.1,0.9,1.1,0.9
215, ' 215 ',230,2,1,1,1,1.00,0.00,1.1,0.9,1.1,0.9
216, ' 216 ',230,2,1,1,1,1.00,0.00,1.1,0.9,1.1,0.9
217, ' 217 ',230,1,1,1,1,1.00,0.00,1.1,0.9,1.1,0.9
218, ' 218 ',230,2,1,1,1,1.00,0.00,1.1,0.9,1.1,0.9
219, ' 219 ',230,1,1,1,1,1.00,0.00,1.1,0.9,1.1,0.9
220, ' 220 ',230,1,1,1,1,1.00,0.00,1.1,0.9,1.1,0.9
221, ' 221 ',230,2,1,1,1,1.00,0.00,1.1,0.9,1.1,0.9
222, ' 222 ',230,2,1,1,1,1.00,0.00,1.1,0.9,1.1,0.9
223, ' 223 ',230,2,1,1,1,1.00,0.00,1.1,0.9,1.1,0.9
224, ' 224 ',230,1,1,1,1,1.00,0.00,1.1,0.9,1.1,0.9
301, ' 301 ',138,2,1,1,1,1.00,0.00,1.1,0.9,1.1,0.9
302, ' 302 ',138,2,1,1,1,1.00,0.00,1.1,0.9,1.1,0.9
303, ' 303 ',138,1,1,1,1,1.00,0.00,1.1,0.9,1.1,0.9
304, ' 304 ',138,1,1,1,1,1.00,0.00,1.1,0.9,1.1,0.9
305, ' 305 ',138,1,1,1,1,1.00,0.00,1.1,0.9,1.1,0.9
306, ' 306 ',138,1,1,1,1,1.00,0.00,1.1,0.9,1.1,0.9
307, ' 307 ',138,2,1,1,1,1.00,0.00,1.1,0.9,1.1,0.9
308, ' 308 ',138,1,1,1,1,1.00,0.00,1.1,0.9,1.1,0.9
309, ' 309 ',138,1,1,1,1,1.00,0.00,1.1,0.9,1.1,0.9
310, ' 310 ',138,1,1,1,1,1.00,0.00,1.1,0.9,1.1,0.9
311, ' 311 ',230,1,1,1,1,1.00,0.00,1.1,0.9,1.1,0.9
312, ' 312 ',230,1,1,1,1,1.00,0.00,1.1,0.9,1.1,0.9
313, ' 313 ',230,2,1,1,1,1.00,0.00,1.1,0.9,1.1,0.9
314, ' 314 ',230,2,1,1,1,1.00,0.00,1.1,0.9,1.1,0.9
315, ' 315 ',230,2,1,1,1,1.00,0.00,1.1,0.9,1.1,0.9
316, ' 316 ',230,2,1,1,1,1.00,0.00,1.1,0.9,1.1,0.9
317, ' 317 ',230,1,1,1,1,1.00,0.00,1.1,0.9,1.1,0.9
318, ' 318 ',230,2,1,1,1,1.00,0.00,1.1,0.9,1.1,0.9
319, ' 319 ',230,1,1,1,1,1.00,0.00,1.1,0.9,1.1,0.9
320, ' 320 ',230,1,1,1,1,1.00,0.00,1.1,0.9,1.1,0.9
321, ' 321 ',230,2,1,1,1,1.00,0.00,1.1,0.9,1.1,0.9
322, ' 322 ',230,2,1,1,1,1.00,0.00,1.1,0.9,1.1,0.9
323, ' 323 ',230,2,1,1,1,1.00,0.00,1.1,0.9,1.1,0.9
324, ' 324 ',230,1,1,1,1,1.00,0.00,1.1,0.9,1.1,0.9
325, ' 325 ',230,1,1,1,1,1.00,0.00,1.1,0.9,1.1,0.9
0 / END OF BUS DATA, BEGIN LOAD DATA
101, '1 ',1,11,11,95.8949916774977,14.069696469237284,0.0,0.0,0.0,0.0,1,1,0
102, '1 ',1,11,12,78.28097426437559,15.84895998810511,0.0,0.0,0.0,0.0,1,1,0
103, '1 ',1,11,11,100.7258626450002,23.669826718213827,0.0,0.0,0.0,0.0,1,1,0
104, '1 ',1,11,11,41.49280077869966,11.097357019852382,0.0,0.0,0.0,0.0,1,1,0
105, '1 ',1,11,11,52.87556348131677,7.961752227660175,0.0,0.0,0.0,0.0,1,1,0
106, '1 ',1,11,12,88.18489450917096,21.011973651587404,0.0,0.0,0.0,0.0,1,1,0
107, '1 ',1,11,12,95.07239374772762,22.192130252545464,0.0,0.0,0.0,0.0,1,1,0
108, '1 ',1,11,12,140.93392935782185,25.148106116750977,0.0,0.0,0.0,0.0,1,1,0
109, '1 ',1,11,13,127.10768573047012,17.53753140689805,0.0,0.0,0.0,0.0,1,1,0
110, '1 ',1,11,13,112.44873120026662,19.46576579352468,0.0,0.0,0.0,0.0,1,1,0
111, '1 ',1,11,13,0.0,0.0,0.0,0.0,0.0,0.0,1,1,0
112, '1 ',1,11,13,0.0,0.0,0.0,0.0,0.0,0.0,1,1,0
113, '1 ',1,12,14,194.94442658109756,33.975521129947616,0.0,0.0,0.0,0.0,1,1,0
114, '1 ',1,12,16,125.03982885042598,20.66534815877122,0.0,0.0,0.0,0.0,1,1,0
115, '1 ',1,12,16,277.97848571042584,33.986639897972346,0.0,0.0,0.0,0.0,1,1,0
116, '1 ',1,12,16,57.97097122154664,10.069848138724453,0.0,0.0,0.0,0.0,1,1,0
117, '1 ',1,12,17,0.0,0.0,0.0,0.0,0.0,0.0,1,1,0
118, '1 ',1,12,17,248.06402955771145,48.29480852201935,0.0,0.0,0.0,0.0,1,1,0
119, '1 ',1,12,15,143.72891358667843,28.564793878532523,0.0,0.0,0.0,0.0,1,1,0
120, '1 ',1,12,15,95.98633507822751,22.377906886364332,0.0,0.0,0.0,0.0,1,1,0
121, '1 ',1,12,17,0.0,0.0,0.0,0.0,0.0,0.0,1,1,0
122, '1 ',1,12,17,0.0,0.0,0.0,0.0,0.0,0.0,1,1,0
123, '1 ',1,12,15,0.0,0.0,0.0,0.0,0.0,0.0,1,1,0
124, '1 ',1,12,16,0.0,0.0,0.0,0.0,0.0,0.0,1,1,0
201, '1 ',1,21,21,78.97146511935442,17.48718216210287,0.0,0.0,0.0,0.0,1,1,0
202, '1 ',1,21,22,67.02541557271262,10.157241336445322,0.0,0.0,0.0,0.0,1,1,0
203, '1 ',1,21,21,137.12071155563928,19.903093878241346,0.0,0.0,0.0,0.0,1,1,0
204, '1 ',1,21,21,51.95638944503869,11.118762925528223,0.0,0.0,0.0,0.0,1,1,0
205, '1 ',1,21,21,52.22852786170626,8.544454164240696,0.0,0.0,0.0,0.0,1,1,0
206, '1 ',1,21,22,86.22581588072889,14.115212201431206,0.0,0.0,0.0,0.0,1,1,0
207, '1 ',1,21,22,96.54559328395408,15.943250701875659,0.0,0.0,0.0,0.0,1,1,0
208, '1 ',1,21,22,91.31495157165037,28.8146467678172,0.0,0.0,0.0,0.0,1,1,0
209, '1 ',1,21,23,100.95125846245908,22.461207346655243,0.0,0.0,0.0,0.0,1,1,0
210, '1 ',1,21,23,157.77349249026412,30.379981598272916,0.0,0.0,0.0,0.0,1,1,0
211, '1 ',1,21,23,0.0,0.0,0.0,0.0,0.0,0.0,1,1,0
212, '1 ',1,21,23,0.0,0.0,0.0,0.0,0.0,0.0,1,1,0
213, '1 ',1,22,24,168.69832847099195,40.518701590172945,0.0,0.0,0.0,0.0,1,1,0
214, '1 ',1,22,26,153.305289044792,26.51042706737942,0.0,0.0,0.0,0.0,1,1,0
215, '1 ',1,22,26,270.74039962638784,39.54436152198314,0.0,0.0,0.0,0.0,1,1,0
216, '1 ',1,22,26,60.623126883390356,10.711748370537533,0.0,0.0,0.0,0.0,1,1,0
217, '1 ',1,22,27,0.0,0.0,0.0,0.0,0.0,0.0,1,1,0
218, '1 ',1,22,27,241.96217775651405,40.64288242548444,0.0,0.0,0.0,0.0,1,1,0
219, '1 ',1,22,25,159.74896216564363,21.509826898648125,0.0,0.0,0.0,0.0,1,1,0
220, '1 ',1,22,25,76.26262500960229,22.874688784765173,0.0,0.0,0.0,0.0,1,1,0
221, '1 ',1,22,27,0.0,0.0,0.0,0.0,0.0,0.0,1,1,0
222, '1 ',1,22,27,0.0,0.0,0.0,0.0,0.0,0.0,1,1,0
223, '1 ',1,22,25,0.0,0.0,0.0,0.0,0.0,0.0,1,1,0
224, '1 ',1,22,26,0.0,0.0,0.0,0.0,0.0,0.0,1,1,0
301, '1 ',1,31,31,69.17351001469753,15.606651421204301,0.0,0.0,0.0,0.0,1,1,0
302, '1 ',1,31,32,47.248676163180775,10.817842067333869,0.0,0.0,0.0,0.0,1,1,0
303, '1 ',1,31,31,114.62790521726757,24.676597220906288,0.0,0.0,0.0,0.0,1,1,0
304, '1 ',1,31,31,47.04058200001185,8.10860727289226,0.0,0.0,0.0,0.0,1,1,0
305, '1 ',1,31,31,43.71923602011544,10.643289867337794,0.0,0.0,0.0,0.0,1,1,0
306, '1 ',1,31,32,115.92024230622278,20.775399640263988,0.0,0.0,0.0,0.0,1,1,0
307, '1 ',1,31,32,90.06624939737377,12.56303680680692,0.0,0.0,0.0,0.0,1,1,0
308, '1 ',1,31,32,132.85175218469774,21.677057186388875,0.0,0.0,0.0,0.0,1,1,0
309, '1 ',1,31,33,92.78689828980714,24.179919456302002,0.0,0.0,0.0,0.0,1,1,0
310, '1 ',1,31,33,147.6466856902046,30.11427880952507,0.0,0.0,0.0,0.0,1,1,0
311, '1 ',1,31,33,0.0,0.0,0.0,0.0,0.0,0.0,1,1,0
312, '1 ',1,31,33,0.0,0.0,0.0,0.0,0.0,0.0,1,1,0
313, '1 ',1,32,34,164.69337847081712,47.80773769336436,0.0,0.0,0.0,0.0,1,1,0
314, '1 ',1,32,36,135.53962865528652,32.33151293052365,0.0,0.0,0.0,0.0,1,1,0
315, '1 ',1,32,36,265.5312801003336,50.350592080825564,0.0,0.0,0.0,0.0,1,1,0
316, '1 ',1,32,36,78.42343789468053,9.791236254209652,0.0,0.0,0.0,0.0,1,1,0
317, '1 ',1,32,37,0.0,0.0,0.0,0.0,0.0,0.0,1,1,0
318, '1 ',1,32,37,215.68128921010734,42.345624260635304,0.0,0.0,0.0,0.0,1,1,0
319, '1 ',1,32,35,156.74368637877146,31.43272444854369,0.0,0.0,0.0,0.0,1,1,0
320, '1 ',1,32,35,103.85676973800658,14.327174995740876,0.0,0.0,0.0,0.0,1,1,0
321, '1 ',1,32,37,0.0,0.0,0.0,0.0,0.0,0.0,1,1,0
322, '1 ',1,32,37,0.0,0.0,0.0,0.0,0.0,0.0,1,1,0
323, '1 ',1,32,35,0.0,0.0,0.0,0.0,0.0,0.0,1,1,0
324, '1 ',1,32,36,0.0,0.0,0.0,0.0,0.0,0.0,1,1,0
325, '1 ',1,32,35,0.0,0.0,0.0,0.0,0.0,0.0,1,1,0
0 / END OF LOAD DATA, BEGIN FIXED SHUNT DATA
0 / END OF FIXED SHUNT DATA, BEGIN GENERATOR DATA
101,1,10,0,12.873861133120954,2.7576875681988895,1.035,0,24,0,1,0,0,1,1,100,25.676682678051293,21.310550212385134,1,1,0,1
101,2,10,0,7.156154111493378,-3.834797845222057,1.035,0,24,0,1,0,0,1,1,100,16.091774598695338,13.063924551829697,1,1,0,1
101,3,76,14.1,35.49597594793886,-4.079539897618808,1.035,0,89,0,1,0,0,1,1,100,61.699946850538254,17.29965731337667,1,1,0,1
101,4,76,14.1,31.610427490901202,-39.223140379181146,1.035,0,89,0,1,0,0,1,1,100,57.753328264690936,3.298009317829709,1,1,0,1
102,5,10,0,9.24206656916067,-1.152923613321036,1.035,0,24,0,1,0,0,1,1,100,22.330267250537872,18.194945358950648,1,1,0,1
102,6,10,0,7.564317688345908,-4.753910035360605,1.035,0,24,0,1,0,0,1,1,100,24.71443498879671,19.684903376353905,1,1,0,1
102,7,76,7,32.34336909977719,-38.368623985210434,1.035,0,89,0,1,0,0,1,1,100,77.42340372242033,20.232555805817242,1,1,0,1
102,8,76,7,24.566612577997148,-14.558449438074604,1.035,0,89,0,1,0,0,1,1,100,60.9666929487139,11.51779486082495,1,1,0,1
107,9,80,17.2,48.54339870158583,4.6026840303093195,1.025,0,118,0,1,0,0,1,1,100,123.92554226331414,63.44970523146914,1,1,0,1
107,10,80,17.2,74.68481290899219,3.970210511237397,1.025,0,118,0,1,0,0,1,1,100,119.40207494888455,65.59760141186416,1,1,0,1
107,11,80,17.2,75.27889857720584,16.780836945399642,1.025,0,118,0,1,0,0,1,1,100,72.57578583434223,5.648403357307534,1,1,0,1
113,12,95.1,40.7,62.172673966735594,-30.44695312902332,1.02,0,232,0,1,0,0,1,1,100,211.9547335090116,67.29669426423962,1,1,0,1
113,13,95.1,40.7,88.30636286735535,3.337257195264101,1.02,0,232,0,1,0,0,1,1,100,165.61676637460477,13.902503128619827,1,1,0,1
113,14,95.1,40.7,94.85000425577164,18.018921721726656,1.02,0,232,0,1,0,0,1,1,100,142.52768742768092,15.003769322559208,1,1,0,1
114,15,0,13.7,227.28176953271034,12.44832668919122,0.98,0,100,0,1,0,0,1,1,100,0.0,0.0,1,1,0,1
115,16,12,0,5.208984341472387,-1.226576237753033,1.014,0,14,0,1,0,0,1,1,100,13.487609030306338,4.462459296584129,1,1,0,1
115,17,12,0,5.337385189812631,-0.35977861918508935,1.014,0,14,0,1,0,0,1,1,100,11.17682324219495,2.979591355361043,1,1,0,1
115,18,12,0,6.61863749139011,0.9202104491181684,1.014,0,14,0,1,0,0,1,1,100,15.556234108842911,6.846137076504531,1,1,0,1
115,19,12,0,4.687526559177786,-2.4645658825524146,1.014,0,14,0,1,0,0,1,1,100,9.235777574591339,4.141261797034284,1,1,0,1
115,20,12,0,4.279181361570954,-3.3257736911997213,1.014,0,14,0,1,0,0,1,1,100,14.340592233091591,2.9616453449428075,1,1,0,1
115,21,155,0.05,98.22871161624789,-2.8055345341563083,1.014,0,182,0,1,0,0,1,1,100,166.137882882962,81.14659799388609,1,1,0,1
116,22,155,25.22,70.78330551832914,-38.11428355053067,1.017,0,182,0,1,0,0,1,1,100,148.08954435796477,62.5006041634595,1,1,0,1
118,23,400,137.4,227.63181423768398,10.10048402938989,1.05,0,471,0,1,0,0,1,1,100,374.4111023284495,223.36870048111177,1,1,0,1
121,24,400,108.2,255.5002307984978,-65.84868038771674,1.05,0,471,0,1,0,0,1,1,100,285.75142726302147,104.38180157879795,1,1,0,1
122,25,50,-4.96,14.771608435362577,-12.283554088044912,1.05,0,53,0,1,0,0,1,1,100,39.63959372136742,18.649693382620327,1,1,0,1
122,26,50,-4.96,14.574154632538557,-13.855738335475325,1.05,0,53,0,1,0,0,1,1,100,41.59008067334071,10.55803817622242,1,1,0,1
122,27,50,-4.96,13.07675297781825,-6.8373369118198735,1.05,0,53,0,1,0,0,1,1,100,35.08112556999549,11.813886729128981,1,1,0,1
122,28,50,-4.96,12.82656979560852,-14.45896618347615,1.05,0,53,0,1,0,0,1,1,100,46.09582281205803,5.2484523807652295,1,1,0,1
122,29,50,-4.96,20.04192085340619,-3.0458320602774656,1.05,0,53,0,1,0,0,1,1,100,38.50688718026504,32.25011196185,1,1,0,1
122,30,50,-4.96,18.445776615291834,-0.127718998771158,1.05,0,53,0,1,0,0,1,1,100,59.24823753070086,9.911643429659307,1,1,0,1
123,31,155,31.79,102.09001622721553,-18.02099383343011,1.05,0,182,0,1,0,0,1,1,100,145.30167033639736,69.47061961457366,1,1,0,1
123,32,155,31.79,92.31521118059754,-53.37787160091102,1.05,0,182,0,1,0,0,1,1,100,192.52250641793944,73.27064573134994,1,1,0,1
123,33,350,71.78,190.50548968138173,-18.702806726796553,1.05,0,412,0,1,0,0,1,1,100,366.3989767082967,130.5458086868748,1,1,0,1
201,34,10,0,7.14985345583409,-4.087122456170619,1.035,0,24,0,1,0,0,1,1,100,17.258962558582425,13.262916364651174,1,1,0,1
201,35,10,0,7.128043374978006,-0.3092632284387946,1.035,0,24,0,1,0,0,1,1,100,17.31242126133293,13.1972517261561,1,1,0,1
201,36,76,14.1,22.236897577531636,-26.13311078143306,1.035,0,89,0,1,0,0,1,1,100,91.23593949340284,46.52219975627959,1,1,0,1
201,37,76,14.1,35.59670202853158,-10.669049510499462,1.035,0,89,0,1,0,0,1,1,100,54.35884239897132,20.282703183986378,1,1,0,1
202,38,10,0,9.206156529020518,0.8247256334871054,1.035,0,24,0,1,0,0,1,1,100,14.74336975812912,9.891527142999694,1,1,0,1
202,39,10,0,12.587480135727676,0.9090698976069707,1.035,0,24,0,1,0,0,1,1,100,15.234639998525381,11.3218052060809,1,1,0,1
202,40,76,7,21.192138936370608,-36.74487297027372,1.035,0,89,0,1,0,0,1,1,100,94.09711777884513,49.9913351039961,1,1,0,1
202,41,76,7,25.0843695262447,-37.04896535095759,1.035,0,89,0,1,0,0,1,1,100,80.77111141420902,4.36993232674898,1,1,0,1
207,42,80,17.2,56.90167269296944,-1.1475293654948473,1.025,0,118,0,1,0,0,1,1,100,107.3504497203976,14.912645585136502,1,1,0,1
207,43,80,17.2,51.46900762338191,7.4474400244653225,1.025,0,118,0,1,0,0,1,1,100,74.92299683392048,20.292772667016834,1,1,0,1
207,44,80,17.2,74.47512552794069,3.4934319583699107,1.025,0,118,0,1,0,0,1,1,100,107.85717222839595,19.590918936301037,1,1,0,1
213,45,95.1,40.7,73.70856788754463,0.4293445162475109,1.02,0,232,0,1,0,0,1,1,100,219.58260209825823,108.39614382372939,1,1,0,1
213,46,95.1,40.7,102.86845541000368,35.058262512087836,1.02,0,232,0,1,0,0,1,1,100,252.87006243332291,162.11134461139562,1,1,0,1
213,47,95.1,40.7,91.3406346924603,5.7308044619858265,1.02,0,232,0,1,0,0,1,1,100,170.48794534462502,15.906042567496172,1,1,0,1
214,48,0,13.68,228.20046956650916,-59.097693611402036,0.98,0,100,0,1,0,0,1,1,100,0.0,0.0,1,1,0,1
215,49,12,0,4.660971083119511,-2.2601714964956043,1.014,0,14,0,1,0,0,1,1,100,13.489780275151134,5.742225800380112,1,1,0,1
215,50,12,0,7.460327502060682,3.2556123839691296,1.014,0,14,0,1,0,0,1,1,100,13.615177506208418,4.485744772106408,1,1,0,1
215,51,12,0,6.619988769851624,0.48539209831506014,1.014,0,14,0,1,0,0,1,1,100,12.78531520664692,5.788845544159415,1,1,0,1
215,52,12,0,5.187724864482879,-1.4891650007106367,1.014,0,14,0,1,0,0,1,1,100,14.954594124667349,5.336811768226328,1,1,0,1
215,53,12,0,6.742500819917769,0.869485706649721,1.014,0,14,0,1,0,0,1,1,100,12.61920755635947,2.1769532365724444,1,1,0,1
215,54,155,0.048,100.9189429730177,-47.57799592195077,1.014,0,182,0,1,0,0,1,1,100,158.13110094098374,44.4812566831708,1,1,0,1
216,55,155,25.22,88.96764669194818,-13.947468750644475,1.017,0,182,0,1,0,0,1,1,100,124.66292852116747,27.985954708885387,1,1,0,1
218,56,400,137.4,195.0886889360845,-52.916621789336205,1.05,0,471,0,1,0,0,1,1,100,285.43691825121635,279.7840318376689,1,1,0,1
221,57,400,108.2,256.2167897820473,77.7881778078154,1.05,0,471,0,1,0,0,1,1,100,358.4832042455673,29.407471832819283,1,1,0,1
222,58,50,-4.96,18.140069004148245,-11.677428963128477,1.05,0,53,0,1,0,0,1,1,100,44.0153022413142,11.317203371078085,1,1,0,1
222,59,50,-4.96,12.69862441793084,-13.965149438474327,1.05,0,53,0,1,0,0,1,1,100,39.486674999352545,21.15284748290927,1,1,0,1
222,60,50,-4.96,11.683964566886424,-14.627612468600276,1.05,0,53,0,1,0,0,1,1,100,45.630078150425106,2.0174608658999205,1,1,0,1
222,61,50,-4.96,13.561016847938298,-16.89681580271572,1.05,0,53,0,1,0,0,1,1,100,63.13884320901707,3.756623170338564,1,1,0,1
222,62,50,-4.96,15.781003027409316,-10.79490192318335,1.05,0,53,0,1,0,0,1,1,100,46.79764015134424,9.849074191879481,1,1,0,1
222,63,50,-4.96,11.956613178551196,-15.860007284116,1.05,0,53,0,1,0,0,1,1,100,58.77016212558374,10.293256142176688,1,1,0,1
223,64,155,31.79,62.78127358481288,-55.905081815551966,1.05,0,182,0,1,0,0,1,1,100,156.64306817390025,50.685728155774996,1,1,0,1
223,65,155,31.79,80.01900134980679,-84.03169266926125,1.05,0,182,0,1,0,0,1,1,100,152.79340714612044,23.880215006729117,1,1,0,1
223,66,350,71.78,182.5864333380014,50.40112582850273,1.05,0,412,0,1,0,0,1,1,100,334.4835798256099,82.60393888549876,1,1,0,1
301,67,10,0,12.983608204871416,1.8044787626713514,1.035,0,24,0,1,0,0,1,1,100,14.714133788831532,11.390823760703206,1,1,0,1
301,68,10,0,8.588521061465144,-3.684353016782552,1.035,0,24,0,1,0,0,1,1,100,20.226038604974747,16.739856421649456,1,1,0,1
301,69,76,14.1,30.82423182483762,-21.77375500532799,1.035,0,89,0,1,0,0,1,1,100,60.1973614430055,15.151572390906509,1,1,0,1
301,70,76,14.1,35.18912516813725,-15.744782124413177,1.035,0,89,0,1,0,0,1,1,100,73.23973622787744,27.955646823681903,1,1,0,1
302,71,10,0,8.377689948771149,-0.21603067684918642,1.035,0,24,0,1,0,0,1,1,100,24.984323989599943,21.850764565058054,1,1,0,1
302,72,10,0,11.665797556750476,1.4572419757023454,1.035,0,24,0,1,0,0,1,1,100,14.476677559316158,10.849260912304745,1,1,0,1
302,73,76,7,38.746471288148314,-0.06387692037969117,1.035,0,89,0,1,0,0,1,1,100,73.03557671029121,21.13718584988267,1,1,0,1
302,74,76,7,38.92952132038772,-28.59301788569428,1.035,0,89,0,1,0,0,1,1,100,85.3090973969549,8.871924837455154,1,1,0,1
307,75,80,17.2,63.659399047493935,14.421195432543755,1.025,0,118,0,1,0,0,1,1,100,117.89175530895591,23.968222961993888,1,1,0,1
307,76,80,17.2,67.2042298251763,-8.984464687295258,1.025,0,118,0,1,0,0,1,1,100,122.13822417892514,33.2098426343873,1,1,0,1
307,77,80,17.2,48.902020683512085,-6.802966427989311,1.025,0,118,0,1,0,0,1,1,100,71.59338910598308,26.07066058496744,1,1,0,1
313,78,95.1,40.7,62.22442989423871,-6.065195951610804,1.02,0,232,0,1,0,0,1,1,100,223.38551138625482,86.37258316799534,1,1,0,1
313,79,95.1,40.7,74.53497912734747,-6.8034037090837955,1.02,0,232,0,1,0,0,1,1,100,144.23047844772225,115.21864080316266,1,1,0,1
313,80,95.1,40.7,71.48370518162847,-32.15819087997079,1.02,0,232,0,1,0,0,1,1,100,252.80976247121583,89.99021033803933,1,1,0,1
314,81,0,13.68,259.24995159730315,46.51277031516656,0.98,0,100,0,1,0,0,1,1,100,0.0,0.0,1,1,0,1
315,82,12,0,6.635789937246591,1.039040935970843,1.014,0,14,0,1,0,0,1,1,100,8.612504721432924,1.3970931045617925,1,1,0,1
315,83,12,0,5.512576264981181,0.03640051670372557,1.014,0,14,0,1,0,0,1,1,100,9.098237530700862,8.728084698305782,1,1,0,1
315,84,12,0,5.420343778934329,-1.8687656583264474,1.014,0,14,0,1,0,0,1,1,100,9.839687773771583,1.089667740584627,1,1,0,1
315,85,12,0,7.751776563283057,2.1513386922888476,1.014,0,14,0,1,0,0,1,1,100,8.962260711751878,7.4559525022385955,1,1,0,1
315,86,12,0,7.285195599775761,-0.2879746248945594,1.014,0,14,0,1,0,0,1,1,100,8.669998525455593,1.3301607770472765,1,1,0,1
315,87,155,0.048,85.02266490459442,-18.156843130942434,1.014,0,182,0,1,0,0,1,1,100,190.74206794821657,60.66100896098649,1,1,0,1
316,88,155,25.22,57.7814098931849,-96.8326506675221,1.017,0,182,0,1,0,0,1,1,100,122.48049114504829,19.44629915854894,1,1,0,1
318,89,400,137.4,174.82793493196368,-45.78027741285041,1.05,0,471,0,1,0,0,1,1,100,439.3831696733832,113.43781871721143,1,1,0,1
321,90,400,108.2,251.0620427131653,40.10228063445541,1.05,0,471,0,1,0,0,1,1,100,446.915496326983,144.50872264336795,1,1,0,1
322,91,50,-4.96,18.974033854156733,-9.920266724750398,1.05,0,53,0,1,0,0,1,1,100,45.74743298813701,43.816876914180185,1,1,0,1
322,92,50,-4.96,13.708765283226967,-8.548112896457315,1.05,0,53,0,1,0,0,1,1,100,47.643355308100574,9.46281771641224,1,1,0,1
322,93,50,-4.96,20.155084999650718,-13.276417755149303,1.05,0,53,0,1,0,0,1,1,100,63.86298314202576,23.896231683902435,1,1,0,1
322,94,50,-4.96,11.292337054759264,-9.579586936347185,1.05,0,53,0,1,0,0,1,1,100,57.0297030499205,9.930343804880977,1,1,0,1
322,95,50,-4.96,19.13989919424057,-10.66365210339427,1.05,0,53,0,1,0,0,1,1,100,58.76401179237292,10.528850730042912,1,1,0,1
322,96,50,-4.96,11.336323733627795,-19.600511926412587,1.05,0,53,0,1,0,0,1,1,100,57.77519232593477,18.009014690760523,1,1,0,1
323,97,155,31.79,62.86665020883083,-45.32912394870071,1.05,0,182,0,1,0,0,1,1,100,188.01273169042543,85.19869777504356,1,1,0,1
323,98,155,31.79,56.450157899409525,-94.69935173355043,1.05,0,182,0,1,0,0,1,1,100,172.11996849416755,83.26477650256129,1,1,0,1
323,99,350,71.78,171.31823905510828,7.531559686176479,1.05,0,412,0,1,0,0,1,1,100,442.4747352302075,229.0966680194252,1,1,0,1
0 / END OF GENERATOR DATA, BEGIN BRANCH DATA
101,102,1,0.003,0.014,0.461,210.0,231.6,240.0,0,0,0,0,1,1,0,1,1
101,103,1,0.055,0.211,0.057,210.0,249.6,264.0,0,0,0,0,1,1,0,1,1
101,105,1,0.022,0.085,0.023,210.0,249.6,264.0,0,0,0,0,1,1,0,1,1
102,104,1,0.033,0.127,0.034,210.0,249.6,264.0,0,0,0,0,1,1,0,1,1
102,106,1,0.05,0.192,0.052,210.0,249.6,264.0,0,0,0,0,1,1,0,1,1
103,109,1,0.031,0.119,0.032,210.0,249.6,264.0,0,0,0,0,1,1,0,1,1
104,109,1,0.027,0.104,0.028,210.0,249.6,264.0,0,0,0,0,1,1,0,1,1
105,110,1,0.023,0.088,0.024,210.0,249.6,264.0,0,0,0,0,1,1,0,1,1
106,110,1,0.014,0.061,2.459,210.0,231.6,240.0,0,0,0,0,1,1,0,1,1
107,108,1,0.016,0.061,0.017,210.0,249.6,264.0,0,0,0,0,1,1,0,1,1
107,203,1,0.042,0.161,0.044,210.0,249.6,264.0,0,0,0,0,1,1,0,1,1
108,109,1,0.043,0.165,0.045,210.0,249.6,264.0,0,0,0,0,1,1,0,1,1
108,110,1,0.043,0.165,0.045,210.0,249.6,264.0,0,0,0,0,1,1,0,1,1
111,113,1,0.006,0.048,0.1,600.0,720.0,750.0,0,0,0,0,1,1,0,1,1
111,114,1,0.005,0.042,0.088,600.0,720.0,750.0,0,0,0,0,1,1,0,1,1
112,113,1,0.006,0.048,0.1,600.0,720.0,750.0,0,0,0,0,1,1,0,1,1
112,123,1,0.012,0.097,0.203,600.0,720.0,750.0,0,0,0,0,1,1,0,1,1
113,123,1,0.011,0.087,0.182,600.0,720.0,750.0,0,0,0,0,1,1,0,1,1
113,215,1,0.01,0.075,0.158,600.0,720.0,750.0,0,0,0,0,1,1,0,1,1
114,116,1,0.005,0.059,0.082,600.0,720.0,750.0,0,0,0,0,1,1,0,1,1
115,116,1,0.002,0.017,0.036,600.0,720.0,750.0,0,0,0,0,1,1,0,1,1
115,121,1,0.006,0.049,0.103,600.0,720.0,750.0,0,0,0,0,1,1,0,1,1
115,121,2,0.006,0.049,0.103,600.0,720.0,750.0,0,0,0,0,1,1,0,1,1
115,124,1,0.007,0.052,0.109,600.0,720.0,750.0,0,0,0,0,1,1,0,1,1
116,117,1,0.003,0.026,0.055,600.0,720.0,750.0,0,0,0,0,1,1,0,1,1
116,119,1,0.003,0.023,0.049,600.0,720.0,750.0,0,0,0,0,1,1,0,1,1
117,118,1,0.002,0.014,0.03,600.0,720.0,750.0,0,0,0,0,1,1,0,1,1
117,122,1,0.014,0.105,0.221,600.0,720.0,750.0,0,0,0,0,1,1,0,1,1
118,121,1,0.003,0.026,0.055,600.0,720.0,750.0,0,0,0,0,1,1,0,1,1
118,121,2,0.003,0.026,0.055,600.0,720.0,750.0,0,0,0,0,1,1,0,1,1
119,120,1,0.005,0.04,0.083,600.0,720.0,750.0,0,0,0,0,1,1,0,1,1
119,120,2,0.005,0.04,0.083,600.0,720.0,750.0,0,0,0,0,1,1,0,1,1
120,123,1,0.003,0.022,0.046,600.0,720.0,750.0,0,0,0,0,1,1,0,1,1
120,123,2,0.003,0.022,0.046,600.0,720.0,750.0,0,0,0,0,1,1,0,1,1
121,122,1,0.009,0.068,0.142,600.0,720.0,750.0,0,0,0,0,1,1,0,1,1
123,217,1,0.01,0.074,0.155,600.0,720.0,750.0,0,0,0,0,1,1,0,1,1
201,202,1,0.003,0.014,0.461,210.0,231.6,240.0,0,0,0,0,1,1,0,1,1
201,203,1,0.055,0.211,0.057,210.0,249.6,264.0,0,0,0,0,1,1,0,1,1
201,205,1,0.022,0.085,0.023,210.0,249.6,264.0,0,0,0,0,1,1,0,1,1
202,204,1,0.033,0.127,0.034,210.0,249.6,264.0,0,0,0,0,1,1,0,1,1
202,206,1,0.05,0.192,0.052,210.0,249.6,264.0,0,0,0,0,1,1,0,1,1
203,209,1,0.031,0.119,0.032,210.0,249.6,264.0,0,0,0,0,1,1,0,1,1
204,209,1,0.027,0.104,0.028,210.0,249.6,264.0,0,0,0,0,1,1,0,1,1
205,210,1,0.023,0.088,0.024,210.0,249.6,264.0,0,0,0,0,1,1,0,1,1
206,210,1,0.014,0.061,2.459,210.0,231.6,240.0,0,0,0,0,1,1,0,1,1
207,208,1,0.016,0.061,0.017,210.0,249.6,264.0,0,0,0,0,1,1,0,1,1
208,209,1,0.043,0.165,0.045,210.0,249.6,264.0,0,0,0,0,1,1,0,1,1
208,210,1,0.043,0.165,0.045,210.0,249.6,264.0,0,0,0,0,1,1,0,1,1
211,213,1,0.006,0.048,0.1,600.0,720.0,750.0,0,0,0,0,1,1,0,1,1
211,214,1,0.005,0.042,0.088,600.0,720.0,750.0,0,0,0,0,1,1,0,1,1
212,213,1,0.006,0.048,0.1,600.0,720.0,750.0,0,0,0,0,1,1,0,1,1
212,223,1,0.012,0.097,0.203,600.0,720.0,750.0,0,0,0,0,1,1,0,1,1
213,223,1,0.011,0.087,0.182,600.0,720.0,750.0,0,0,0,0,1,1,0,1,1
214,216,1,0.005,0.059,0.082,600.0,720.0,750.0,0,0,0,0,1,1,0,1,1
215,216,1,0.002,0.017,0.036,600.0,720.0,750.0,0,0,0,0,1,1,0,1,1
215,221,1,0.006,0.049,0.103,600.0,720.0,750.0,0,0,0,0,1,1,0,1,1
215,221,2,0.006,0.049,0.103,600.0,720.0,750.0,0,0,0,0,1,1,0,1,1
215,224,1,0.007,0.052,0.109,600.0,720.0,750.0,0,0,0,0,1,1,0,1,1
216,217,1,0.003,0.026,0.055,600.0,720.0,750.0,0,0,0,0,1,1,0,1,1
216,219,1,0.003,0.023,0.049,600.0,720.0,750.0,0,0,0,0,1,1,0,1,1
217,218,1,0.002,0.014,0.03,600.0,720.0,750.0,0,0,0,0,1,1,0,1,1
217,222,1,0.014,0.105,0.221,600.0,720.0,750.0,0,0,0,0,1,1,0,1,1
218,221,1,0.003,0.026,0.055,600.0,720.0,750.0,0,0,0,0,1,1,0,1,1
218,221,2,0.003,0.026,0.055,600.0,720.0,750.0,0,0,0,0,1,1,0,1,1
219,220,1,0.005,0.04,0.083,600.0,720.0,750.0,0,0,0,0,1,1,0,1,1
219,220,2,0.005,0.04,0.083,600.0,720.0,750.0,0,0,0,0,1,1,0,1,1
220,223,1,0.003,0.022,0.046,600.0,720.0,750.0,0,0,0,0,1,1,0,1,1
220,223,2,0.003,0.022,0.046,600.0,720.0,750.0,0,0,0,0,1,1,0,1,1
221,222,1,0.009,0.068,0.142,600.0,720.0,750.0,0,0,0,0,1,1,0,1,1
301,302,1,0.003,0.014,0.461,210.0,231.6,240.0,0,0,0,0,1,1,0,1,1
301,303,1,0.055,0.211,0.057,210.0,249.6,264.0,0,0,0,0,1,1,0,1,1
301,305,1,0.022,0.085,0.023,210.0,249.6,264.0,0,0,0,0,1,1,0,1,1
302,304,1,0.033,0.127,0.034,210.0,249.6,264.0,0,0,0,0,1,1,0,1,1
302,306,1,0.05,0.192,0.052,210.0,249.6,264.0,0,0,0,0,1,1,0,1,1
303,309,1,0.031,0.119,0.032,210.0,249.6,264.0,0,0,0,0,1,1,0,1,1
304,309,1,0.027,0.104,0.028,210.0,249.6,264.0,0,0,0,0,1,1,0,1,1
305,310,1,0.023,0.088,0.024,210.0,249.6,264.0,0,0,0,0,1,1,0,1,1
306,310,1,0.014,0.061,2.459,210.0,231.6,240.0,0,0,0,0,1,1,0,1,1
307,308,1,0.016,0.061,0.017,210.0,249.6,264.0,0,0,0,0,1,1,0,1,1
308,309,1,0.043,0.165,0.045,210.0,249.6,264.0,0,0,0,0,1,1,0,1,1
308,310,1,0.043,0.165,0.045,210.0,249.6,264.0,0,0,0,0,1,1,0,1,1
311,313,1,0.006,0.048,0.1,600.0,720.0,750.0,0,0,0,0,1,1,0,1,1
311,314,1,0.005,0.042,0.088,600.0,720.0,750.0,0,0,0,0,1,1,0,1,1
312,313,1,0.006,0.048,0.1,600.0,720.0,750.0,0,0,0,0,1,1,0,1,1
312,323,1,0.012,0.097,0.203,600.0,720.0,750.0,0,0,0,0,1,1,0,1,1
313,323,1,0.011,0.087,0.182,600.0,720.0,750.0,0,0,0,0,1,1,0,1,1
314,316,1,0.005,0.059,0.082,600.0,720.0,750.0,0,0,0,0,1,1,0,1,1
315,316,1,0.002,0.017,0.036,600.0,720.0,750.0,0,0,0,0,1,1,0,1,1
315,321,1,0.006,0.049,0.103,600.0,720.0,750.0,0,0,0,0,1,1,0,1,1
315,321,2,0.006,0.049,0.103,600.0,720.0,750.0,0,0,0,0,1,1,0,1,1
315,324,1,0.007,0.052,0.109,600.0,720.0,750.0,0,0,0,0,1,1,0,1,1
316,317,1,0.003,0.026,0.055,600.0,720.0,750.0,0,0,0,0,1,1,0,1,1
316,319,1,0.003,0.023,0.049,600.0,720.0,750.0,0,0,0,0,1,1,0,1,1
317,318,1,0.002,0.014,0.03,600.0,720.0,750.0,0,0,0,0,1,1,0,1,1
317,322,1,0.014,0.105,0.221,600.0,720.0,750.0,0,0,0,0,1,1,0,1,1
318,223,1,0.013,0.104,0.218,600.0,720.0,750.0,0,0,0,0,1,1,0,1,1
318,321,1,0.003,0.026,0.055,600.0,720.0,750.0,0,0,0,0,1,1,0,1,1
318,321,2,0.003,0.026,0.055,600.0,720.0,750.0,0,0,0,0,1,1,0,1,1
319,320,1,0.005,0.04,0.083,600.0,720.0,750.0,0,0,0,0,1,1,0,1,1
319,320,2,0.005,0.04,0.083,600.0,720.0,750.0,0,0,0,0,1,1,0,1,1
320,323,1,0.003,0.022,0.046,600.0,720.0,750.0,0,0,0,0,1,1,0,1,1
320,323,2,0.003,0.022,0.046,600.0,720.0,750.0,0,0,0,0,1,1,0,1,1
321,322,1,0.009,0.068,0.142,600.0,720.0,750.0,0,0,0,0,1,1,0,1,1
323,325,1,0,0.009,0,866.4,1071.6,1071.6,0,0,0,0,1,1,0,1,1
325,121,1,0.012,0.097,0.203,600.0,720.0,750.0,0,0,0,0,1,1,0,1,1
0 / END OF BRANCH DATA, BEGIN TRANSFORMER DATA
  103 ,  124 , 0,  1 , 1, 1, 1, 0, 0, 2, '            ',  1 , 1, 1
   0.002000 ,  0.084000 ,  100.000000
   1.015000 , 0,  0.000000 ,  400.000000 ,  510.000000 ,  600.000000 , 0, 0,  1.10 ,  0.90 ,  1.10 ,  0.90 , 33, 0, 0, 0
   1.000000, 0
  109 ,  111 , 0,  1 , 1, 1, 1, 0, 0, 2, '            ',  1 , 1, 1
   0.002000 ,  0.084000 ,  100.000000
   1.030000 , 0,  0.000000 ,  400.000000 ,  510.000000 ,  600.000000 , 0, 0,  1.10 ,  0.90 ,  1.10 ,  0.90 , 33, 0, 0, 0
   1.000000, 0
  109 ,  112 , 0,  1 , 1, 1, 1, 0, 0, 2, '            ',  1 , 1, 1
   0.002000 ,  0.084000 ,  100.000000
   1.030000 , 0,  0.000000 ,  400.000000 ,  510.000000 ,  600.000000 , 0, 0,  1.10 ,  0.90 ,  1.10 ,  0.90 , 33, 0, 0, 0
   1.000000, 0
  110 ,  111 , 0,  1 , 1, 1, 1, 0, 0, 2, '            ',  1 , 1, 1
   0.002000 ,  0.084000 ,  100.000000
   1.015000 , 0,  0.000000 ,  400.000000 ,  510.000000 ,  600.000000 , 0, 0,  1.10 ,  0.90 ,  1.10 ,  0.90 , 33, 0, 0, 0
   1.000000, 0
  110 ,  112 , 0,  1 , 1, 1, 1, 0, 0, 2, '            ',  1 , 1, 1
   0.002000 ,  0.084000 ,  100.000000
   1.015000 , 0,  0.000000 ,  400.000000 ,  510.000000 ,  600.000000 , 0, 0,  1.10 ,  0.90 ,  1.10 ,  0.90 , 33, 0, 0, 0
   1.000000, 0
  203 ,  224 , 0,  1 , 1, 1, 1, 0, 0, 2, '            ',  1 , 1, 1
   0.002000 ,  0.084000 ,  100.000000
   1.015000 , 0,  0.000000 ,  400.000000 ,  510.000000 ,  600.000000 , 0, 0,  1.10 ,  0.90 ,  1.10 ,  0.90 , 33, 0, 0, 0
   1.000000, 0
  209 ,  211 , 0,  1 , 1, 1, 1, 0, 0, 2, '            ',  1 , 1, 1
   0.002000 ,  0.084000 ,  100.000000
   1.030000 , 0,  0.000000 ,  400.000000 ,  510.000000 ,  600.000000 , 0, 0,  1.10 ,  0.90 ,  1.10 ,  0.90 , 33, 0, 0, 0
   1.000000, 0
  209 ,  212 , 0,  1 , 1, 1, 1, 0, 0, 2, '            ',  1 , 1, 1
   0.002000 ,  0.084000 ,  100.000000
   1.030000 , 0,  0.000000 ,  400.000000 ,  510.000000 ,  600.000000 , 0, 0,  1.10 ,  0.90 ,  1.10 ,  0.90 , 33, 0, 0, 0
   1.000000, 0
  210 ,  211 , 0,  1 , 1, 1, 1, 0, 0, 2, '            ',  1 , 1, 1
   0.002000 ,  0.084000 ,  100.000000
   1.015000 , 0,  0.000000 ,  400.000000 ,  510.000000 ,  600.000000 , 0, 0,  1.10 ,  0.90 ,  1.10 ,  0.90 , 33, 0, 0, 0
   1.000000, 0
  210 ,  212 , 0,  1 , 1, 1, 1, 0, 0, 2, '            ',  1 , 1, 1
   0.002000 ,  0.084000 ,  100.000000
   1.015000 , 0,  0.000000 ,  400.000000 ,  510.000000 ,  600.000000 , 0, 0,  1.10 ,  0.90 ,  1.10 ,  0.90 , 33, 0, 0, 0
   1.000000, 0
  303 ,  324 , 0,  1 , 1, 1, 1, 0, 0, 2, '            ',  1 , 1, 1
   0.002000 ,  0.084000 ,  100.000000
   1.015000 , 0,  0.000000 ,  400.000000 ,  510.000000 ,  600.000000 , 0, 0,  1.10 ,  0.90 ,  1.10 ,  0.90 , 33, 0, 0, 0
   1.000000, 0
  309 ,  311 , 0,  1 , 1, 1, 1, 0, 0, 2, '            ',  1 , 1, 1
   0.002000 ,  0.084000 ,  100.000000
   1.030000 , 0,  0.000000 ,  400.000000 ,  510.000000 ,  600.000000 , 0, 0,  1.10 ,  0.90 ,  1.10 ,  0.90 , 33, 0, 0, 0
   1.000000, 0
  309 ,  312 , 0,  1 , 1, 1, 1, 0, 0, 2, '            ',  1 , 1, 1
   0.002000 ,  0.084000 ,  100.000000
   1.030000 , 0,  0.000000 ,  400.000000 ,  510.000000 ,  600.000000 , 0, 0,  1.10 ,  0.90 ,  1.10 ,  0.90 , 33, 0, 0, 0
   1.000000, 0
  310 ,  311 , 0,  1 , 1, 1, 1, 0, 0, 2, '            ',  1 , 1, 1
   0.002000 ,  0.084000 ,  100.000000
   1.015000 , 0,  0.000000 ,  400.000000 ,  510.000000 ,  600.000000 , 0, 0,  1.10 ,  0.90 ,  1.10 ,  0.90 , 33, 0, 0, 0
   1.000000, 0
  310 ,  312 , 0,  1 , 1, 1, 1, 0, 0, 2, '            ',  1 , 1, 1
   0.002000 ,  0.084000 ,  100.000000
   1.015000 , 0,  0.000000 ,  400.000000 ,  510.000000 ,  600.000000 , 0, 0,  1.10 ,  0.90 ,  1.10 ,  0.90 , 33, 0, 0, 0
   1.000000, 0
0 / END OF TRANSFORMER DATA, BEGIN AREA DATA
0 / END OF AREA DATA, BEGIN TWO-TERMINAL DC DATA
0 / END OF TWO-TERMINAL DC DATA, BEGIN VSC DC LINE DATA
0 / END OF VSC DC LINE DATA, BEGIN SWITCHED SHUNT DATA
0 / END OF SWITCHED SHUNT DATA, BEGIN IMPEDANCE CORRECTION DATA
0 / END OF IMPEDANCE CORRECTION DATA, BEGIN MULTI-TERMINAL DC DATA
0 / END OF MULTI-TERMINAL DC DATA, BEGIN MULTI-SECTION LINE DATA
0 / END OF MULTI-SECTION LINE DATA, BEGIN ZONE DATA
0 / END OF ZONE DATA, BEGIN INTER-AREA TRANSFER DATA
0 / END OF INTER-AREA TRANSFER DATA, BEGIN OWNER DATA
0 / END OF OWNER DATA, BEGIN FACTS CONTROL DEVICE DATA
0 / END OF FACTS CONTROL DEVICE DATA
0 / END OF SWITCHED SHUNT DATA, BEGIN GNE DATA
0 / END OF GNE DATA, BEGIN INDUCTION MACHINE DATA
0 / END OF INDUCTION MACHINE DATA
Q 
